18

C          0.72509        1.26267       -0.22796
C         -0.72999        1.26160        0.23306
C         -1.46059        0.00038       -0.21994
C         -0.73090       -1.26159        0.23241
C          0.72407       -1.26348       -0.22893
C          1.45746       -0.00085        0.21656
H          1.23775        2.14555        0.17018
H          0.76046        1.33843       -1.32181
H         -1.24260        2.14672       -0.16008
H         -0.76589        1.33055        1.32729
H         -1.54506        0.00069       -1.31364
H         -2.48090        0.00065        0.17966
H         -1.24425       -2.14615       -0.16102
H         -0.76663       -1.33099        1.32662
H          0.75917       -1.33833       -1.32284
H          1.23611       -2.14709        0.16838
H          2.47399       -0.00112       -0.19208
H          1.55186       -0.00132        1.30965
