34

C         -1.72904       -0.95975        2.30837
C         -1.10863       -2.12559        2.74789
C          0.27103       -2.28835        2.59179
C          1.05218       -1.29333        1.98367
C          0.40840       -0.12434        1.54431
C         -0.97167        0.04166        1.70660
P          2.84983       -1.47815        1.68958
C          3.46070       -1.70603        3.40029
C          3.89690       -0.56988        4.10459
C          4.39072       -0.67117        5.40980
C          4.47340       -1.91925        6.02842
C          4.05762       -3.05367        5.34676
C          3.54421       -2.94578        4.05088
C          2.98184       -3.12243        0.89236
C          1.96516       -3.60229        0.04664
C          2.07440       -4.84383       -0.58671
C          3.20813       -5.62314       -0.40537
C          4.24074       -5.16028        0.40881
C          4.13211       -3.91471        1.03580
H         -2.80168       -0.83352        2.43244
H         -1.69673       -2.91514        3.20833
H          0.72460       -3.21700        2.92888
H          0.97295        0.66965        1.05923
H         -1.45462        0.95091        1.35786
H          3.85385        0.41568        3.64480
H          4.71062        0.21992        5.94157
H          4.85797       -1.99979        7.04198
H          4.12829       -4.03048        5.81778
H          3.21314       -3.85857        3.56241
H          1.06654       -3.01580       -0.13412
H          1.26617       -5.19322       -1.22478
H          3.29761       -6.58305       -0.90481
H          5.13055       -5.76524        0.55592
H          4.96177       -3.58016        1.65588
